Questionable use of curly braces in "b1 theta 0  v={(v(theta_t)/(2*{pi})-floor(v(theta_t)/(2*{pi})))*2*{pi}}"
    Error: undefined symbol in: "([v](theta_t)/(2*(pi))-floor(v(theta_t)/(2*(pi))))*2*(pi)"
Questionable use of curly braces in "b2 pwm 0 v={v(vdc)*if(v(triangular)<v(duty),1,0)}"
    Error: undefined symbol in: "[v](vdc)*if(v(triangular)<v(duty),1,0)"
Circuit: * Z:\University\13e\lse1\sim\BLDC_openloop.asc

WARNING: Less than two connections to node rpm.  This node is used by e:u21:1.
WARNING: Less than two connections to node sensorlessa.  This node is used by e:u33:1.
WARNING: Less than two connections to node sensorlessb.  This node is used by e:u32:1.
WARNING: Less than two connections to node sensorlessc.  This node is used by e:u34:1.
Direct Newton iteration for .op point succeeded.
Ignoring empty pin current: Ix(u28:5)
Ignoring empty pin current: Ix(u29:5)
Ignoring empty pin current: Ix(u30:5)
Ignoring empty pin current: Ix(u28:5)
Ignoring empty pin current: Ix(u29:5)
Ignoring empty pin current: Ix(u30:5)

Date: Wed Oct  1 10:38:31 2025
Total elapsed time: 1457.778 seconds.

tnom = 27
temp = 27
method = modified trap
totiter = 47699173
traniter = 47699163
tranpoints = 17164769
accept = 12432893
rejected = 4731876
matrix size = 183
fillins = 108
solver = Normal
Avg thread counts: 1.0/2.0/1.0/1.0
Matrix Compiler1: 12.75 KB object code size  3.2/2.3/[1.3]
Matrix Compiler2: 14.19 KB object code size  1.8/2.9/[1.4]

